McPAT (version 1.3 of Feb, 2015) is computing the target processor...
 

McPAT (version 1.3 of Feb, 2015) results  (current print level is 5)
*****************************************************************************************
  Technology 22 nm
  Interconnect metal projection= aggressive interconnect technology projection
  Core clock Rate(MHz) 2000

*****************************************************************************************
Processor: 
  Area = 39.0793 mm^2
  Peak Power = 114.39 W
  Total Leakage = 68.3594 W
  Peak Dynamic = 46.0302 W
  Subthreshold Leakage = 68.3178 W
  Gate Leakage = 0.0416733 W
  Runtime Dynamic = inf W

  Total Cores: 4 cores 
  Device Type= ITRS high performance device type
    Area = 36.6849 mm^2
    Peak Dynamic = 45.6565 W
    Subthreshold Leakage = 66.7123 W
    Gate Leakage = 0.0414049 W
    Runtime Dynamic = inf W

  Total L2s: 
  Device Type= ITRS high performance device type
    Area = 2.39442 mm^2
    Peak Dynamic = 0.373689 W
    Subthreshold Leakage = 1.6055 W
    Gate Leakage = 0.000268393 W
    Runtime Dynamic = inf W

*****************************************************************************************
Core:
      Area = 9.17123 mm^2
      Peak Dynamic = 11.4141 W
      Subthreshold Leakage = 16.6781 W
      Gate Leakage = 0.0103512 W
      Runtime Dynamic = inf W

      Instruction Fetch Unit:
        Area = 1.44352 mm^2
        Peak Dynamic = 1.52172 W
        Subthreshold Leakage = 2.43635 W
        Gate Leakage = 0.00138179 W
        Runtime Dynamic = nan W

          Instruction Cache:
            Area = 0.398998 mm^2
            Peak Dynamic = 0.403228 W
            Subthreshold Leakage = 0.842843 W
            Gate Leakage = 0.000446554 W
            Runtime Dynamic = nan W

          Branch Target Buffer:
            Area = 0.106079 mm^2
            Peak Dynamic = 0.0219461 W
            Subthreshold Leakage = 0.104865 W
            Gate Leakage = 3.15558e-05 W
            Runtime Dynamic = nan W

          Branch Predictor:
            Area = 0.0293379 mm^2
            Peak Dynamic = 0.0187171 W
            Subthreshold Leakage = 0.0656029 W
            Gate Leakage = 2.21415e-05 W
            Runtime Dynamic = nan W

              Global Predictor:
                Area = 0.00977882 mm^2
                Peak Dynamic = 0.00488979 W
                Subthreshold Leakage = 0.023114 W
                Gate Leakage = 7.42576e-06 W
                Runtime Dynamic = nan W

              Local Predictor:
              L1_Local Predictor:
                Area = 0.00553212 mm^2
                Peak Dynamic = 0.00407608 W
                Subthreshold Leakage = 0.0117512 W
                Gate Leakage = 4.19946e-06 W
                Runtime Dynamic = nan W

              L2_Local Predictor:
                Area = 0.00279733 mm^2
                Peak Dynamic = 0.00202638 W
                Subthreshold Leakage = 0.00648493 W
                Gate Leakage = 2.56421e-06 W
                Runtime Dynamic = nan W

              Chooser:
                Area = 0.00977882 mm^2
                Peak Dynamic = 0.00488979 W
                Subthreshold Leakage = 0.023114 W
                Gate Leakage = 7.42576e-06 W
                Runtime Dynamic = nan W

              RAS:
                Area = 0.0014508 mm^2
                Peak Dynamic = 0.00283508 W
                Subthreshold Leakage = 0.0011387 W
                Gate Leakage = 5.26347e-07 W
                Runtime Dynamic = nan W

          Instruction Buffer:
            Area = 0.00692071 mm^2
            Peak Dynamic = 0.438808 W
            Subthreshold Leakage = 0.00706298 W
            Gate Leakage = 2.99209e-06 W
            Runtime Dynamic = nan W

          Instruction Decoder:
            Area = 0.854606 mm^2
            Peak Dynamic = 0.555574 W
            Subthreshold Leakage = 1.15482 W
            Gate Leakage = 0.000502582 W
            Runtime Dynamic = nan W

      Renaming Unit:
        Area = 0.141413 mm^2
        Peak Dynamic = 1.84036 W
        Subthreshold Leakage = 0.277632 W
        Gate Leakage = 0.000383124 W
        Runtime Dynamic = inf W

          Int Front End RAT with 1 internal checkpoints:
            Area = 0.0210911 mm^2
            Peak Dynamic = 1.12786 W
            Subthreshold Leakage = 0.00329776 W
            Gate Leakage = 1.61998e-06 W
            Runtime Dynamic = inf W

          FP Front End RAT with 1 internal checkpoints:
            Area = 0.00293106 mm^2
            Peak Dynamic = 0.274347 W
            Subthreshold Leakage = 0.00101634 W
            Gate Leakage = 7.42716e-07 W
            Runtime Dynamic = inf W

          Free List:
            Area = 0.0548395 mm^2
            Peak Dynamic = 0.0651518 W
            Subthreshold Leakage = 0.00784964 W
            Gate Leakage = 3.01637e-06 W
            Runtime Dynamic = inf W

          FP Free List:
            Area = 0.0149716 mm^2
            Peak Dynamic = 0.0392253 W
            Subthreshold Leakage = 0.00431218 W
            Gate Leakage = 1.78271e-06 W
            Runtime Dynamic = inf W

      Load Store Unit:
        Area = 1.75198 mm^2
        Peak Dynamic = 1.70585 W
        Subthreshold Leakage = 3.28836 W
        Gate Leakage = 0.00206301 W
        Runtime Dynamic = nan W

          Data Cache:
            Area = 1.40991 mm^2
            Peak Dynamic = 1.48738 W
            Subthreshold Leakage = 2.83194 W
            Gate Leakage = 0.00157625 W
            Runtime Dynamic = nan W

          LoadQ:
            Area = 0.0697714 mm^2
            Peak Dynamic = 0.0675166 W
            Subthreshold Leakage = 0.0976281 W
            Gate Leakage = 5.54034e-05 W
            Runtime Dynamic = nan W

          StoreQ:
            Area = 0.0697714 mm^2
            Peak Dynamic = 0.0675166 W
            Subthreshold Leakage = 0.0976281 W
            Gate Leakage = 5.54034e-05 W
            Runtime Dynamic = nan W

      Memory Management Unit:
        Area = 0.0870302 mm^2
        Peak Dynamic = 0.218442 W
        Subthreshold Leakage = 0.318472 W
        Runtime Dynamic = nan W

          Itlb:
            Area = 0.00887896 mm^2
            Peak Dynamic = 0.00247178 W
            Subthreshold Leakage = 0.0137926 W
            Gate Leakage = 7.98056e-06 W
            Runtime Dynamic = nan W

          Dtlb:
            Area = 0.0305711 mm^2
            Peak Dynamic = 0.00736311 W
            Subthreshold Leakage = 0.0435237 W
            Gate Leakage = 2.50396e-05 W
            Runtime Dynamic = nan W

      Execution Unit:
        Area = 2.84338 mm^2
        Peak Dynamic = 6.12776 W
        Subthreshold Leakage = 3.76502 W
        Runtime Dynamic = nan W

          Register Files:
            Area = 1.03371 mm^2
            Peak Dynamic = 1.9614 W
            Subthreshold Leakage = 0.17289 W
            Gate Leakage = 7.05731e-05 W
            Runtime Dynamic = nan W

              Integer RF:
                Area = 0.516853 mm^2
                Peak Dynamic = 1.58337 W
                Subthreshold Leakage = 0.0864452 W
                Gate Leakage = 3.52865e-05 W
                Runtime Dynamic = inf W

              Floating Point RF:
                Area = 0.516853 mm^2
                Peak Dynamic = 0.378024 W
                Subthreshold Leakage = 0.0864452 W
                Gate Leakage = 3.52865e-05 W
                Runtime Dynamic = inf W

          Instruction Scheduler:
            Area = 0.287636 mm^2
            Peak Dynamic = 1.2684 W
            Subthreshold Leakage = 0.124321 W
            Gate Leakage = 6.23238e-05 W
            Runtime Dynamic = nan W

              Instruction Window:
                Area = 0.0576068 mm^2
                Peak Dynamic = 0.377326 W
                Subthreshold Leakage = 0.0459025 W
                Gate Leakage = 2.68721e-05 W
                Runtime Dynamic = nan W

              FP Instruction Window:
                Area = 0.0160113 mm^2
                Peak Dynamic = 0.103357 W
                Subthreshold Leakage = 0.0223594 W
                Gate Leakage = 1.34551e-05 W
                Runtime Dynamic = nan W

              ROB:
                Area = 0.214018 mm^2
                Peak Dynamic = 0.787714 W
                Subthreshold Leakage = 0.0560586 W
                Gate Leakage = 2.19966e-05 W
                Runtime Dynamic = nan W

          Integer ALUs (Count: 6 ):
            Area = 0.230726 mm^2
            Peak Dynamic = 0.989846 W
            Subthreshold Leakage = 1.04756 W
            Gate Leakage = 0.000599256 W
            Runtime Dynamic = nan W

          Floating Point Units (FPUs) (Count: 2 ):
            Area = 1.11344 mm^2
            Peak Dynamic = 0.362406 W
            Subthreshold Leakage = 1.26383 W
            Gate Leakage = 0.000722972 W
            Runtime Dynamic = nan W

          Complex ALUs (Mul/Div) (Count: 1 ):
            Area = 0.115363 mm^2
            Peak Dynamic = 0.153528 W
            Subthreshold Leakage = 0.52378 W
            Gate Leakage = 0.000299628 W
            Runtime Dynamic = nan W

          Results Broadcast Bus:
            Area Overhead = 0.0149291 mm^2
            Peak Dynamic = 1.05842 W
            Subthreshold Leakage = 0.37148 W
            Gate Leakage = 0.000212505 W
            Runtime Dynamic = nan W

*****************************************************************************************
L2
      Area = 2.39442 mm^2
      Peak Dynamic = 0.373689 W
      Subthreshold Leakage = 1.6055 W
      Gate Leakage = 0.000268393 W
      Runtime Dynamic = inf W

*****************************************************************************************
